<additional>
  
    <inductionLoop id="det_A0" lane="A0_0" pos="5.0" freq="60" file="detector_output.xml"/>
    <inductionLoop id="det_A1" lane="A1_0" pos="5.0" freq="60" file="detector_output.xml"/>
    <inductionLoop id="det_A2" lane="A2_0" pos="5.0" freq="60" file="detector_output.xml"/>
    <inductionLoop id="det_A3" lane="A3_0" pos="5.0" freq="60" file="detector_output.xml"/>  
    <inductionLoop id="det_B0" lane="B0_0" pos="5.0" freq="60" file="detector_output.xml"/>
    <inductionLoop id="det_B1" lane="B1_0" pos="5.0" freq="60" file="detector_output.xml"/>
    <inductionLoop id="det_B2" lane="B2_0" pos="5.0" freq="60" file="detector_output.xml"/>
    <inductionLoop id="det_B3" lane="B3_0" pos="5.0" freq="60" file="detector_output.xml"/>
    <inductionLoop id="det_C0" lane="C0_0" pos="5.0" freq="60" file="detector_output.xml"/>
    <inductionLoop id="det_C1" lane="C1_0" pos="5.0" freq="60" file="detector_output.xml"/>
    <inductionLoop id="det_C2" lane="C2_0" pos="5.0" freq="60" file="detector_output.xml"/>
    <inductionLoop id="det_C3" lane="C3_0" pos="5.0" freq="60" file="detector_output.xml"/>
    <inductionLoop id="det_D0" lane="D0_0" pos="5.0" freq="60" file="detector_output.xml"/>
    <inductionLoop id="det_D1" lane="D1_0" pos="5.0" freq="60" file="detector_output.xml"/>
    <inductionLoop id="det_D2" lane="D2_0" pos="5.0" freq="60" file="detector_output.xml"/>
    <inductionLoop id="det_D3" lane="D3_0" pos="5.0" freq="60" file="detector_output.xml"/>
      
    <!-- Loop detectors for all entry/exit lanes of central junctions -->

    <!-- For junction B1 -->
    <laneAreaDetector id="det_B1_0" lane="A1B1_0" pos="5" length="5" freq="1"/>
    <laneAreaDetector id="det_B1_1" lane="B1A1_0" pos="5" length="5" freq="1"/>
    <laneAreaDetector id="det_B1_2" lane="B0B1_0" pos="5" length="5" freq="1"/>
    <laneAreaDetector id="det_B1_3" lane="B1B2_0" pos="5" length="5" freq="1"/>

    <!-- For junction B2 -->
    <laneAreaDetector id="det_B2_0" lane="A2B2_0" pos="5" length="5" freq="1"/>
    <laneAreaDetector id="det_B2_1" lane="B2A2_0" pos="5" length="5" freq="1"/>
    <laneAreaDetector id="det_B2_2" lane="B3B2_0" pos="5" length="5" freq="1"/>
    <laneAreaDetector id="det_B2_3" lane="B2B1_0" pos="5" length="5" freq="1"/>

    <!-- For junction C1 -->
    <laneAreaDetector id="det_C1_0" lane="C0C1_0" pos="5" length="5" freq="1"/>
    <laneAreaDetector id="det_C1_1" lane="C1C2_0" pos="5" length="5" freq="1"/>
    <laneAreaDetector id="det_C1_2" lane="B1C1_0" pos="5" length="5" freq="1"/>
    <laneAreaDetector id="det_C1_3" lane="C1B1_0" pos="5" length="5" freq="1"/>

    <!-- For junction C2 -->
    <laneAreaDetector id="det_C2_0" lane="B2C2_0" pos="5" length="5" freq="1"/>
    <laneAreaDetector id="det_C2_1" lane="C2B2_0" pos="5" length="5" freq="1"/>
    <laneAreaDetector id="det_C2_2" lane="C3C2_0" pos="5" length="5" freq="1"/>
    <laneAreaDetector id="det_C2_3" lane="C2C1_0" pos="5" length="5" freq="1"/>
</additional>


