<?xml version='1.0' encoding='utf-8'?>
<nodes>
	<node id="A0" x="0" y="0" type="priority" />
	<node id="A1" x="100" y="0" type="priority" />
	<node id="A2" x="200" y="0" type="priority" />
	<node id="A3" x="300" y="0" type="priority" />
	<node id="B0" x="0" y="100" type="priority" />
	<node id="B1" x="100" y="100" type="traffic_light" />
	<node id="B2" x="200" y="100" type="traffic_light" />
	<node id="B3" x="300" y="100" type="priority" />
	<node id="C0" x="0" y="200" type="priority" />
	<node id="C1" x="100" y="200" type="traffic_light" />
	<node id="C2" x="200" y="200" type="traffic_light" />
	<node id="C3" x="300" y="200" type="priority" />
	<node id="D0" x="0" y="300" type="priority" />
	<node id="D1" x="100" y="300" type="priority" />
	<node id="D2" x="200" y="300" type="priority" />
	<node id="D3" x="300" y="300" type="priority" />
</nodes>